
Version,
  8.9;                                    !- Version Identifier

Timestep,
  6;                                      !- Number of Timesteps per Hour

LifeCycleCost:Parameters,
  Life Cycle Cost Parameters,             !- Name
  EndOfYear,                              !- Discounting Convention
  ConstantDollar,                         !- Inflation Approach
  0.03,                                   !- Real Discount Rate
  ,                                       !- Nominal Discount Rate
  ,                                       !- Inflation
  ,                                       !- Base Date Month
  2011,                                   !- Base Date Year
  ,                                       !- Service Date Month
  2011,                                   !- Service Date Year
  25,                                     !- Length of Study Period in Years
  ,                                       !- Tax rate
  None;                                   !- Depreciation Method

LifeCycleCost:UsePriceEscalation,
  U.S. Avg  Commercial-Electricity,       !- LCC Price Escalation Name
  Electricity,                            !- Resource
  2011,                                   !- Escalation Start Year
  January,                                !- Escalation Start Month
  0.9838,                                 !- Year Escalation 1
  0.9730,                                 !- Year Escalation 2
  0.9632,                                 !- Year Escalation 3
  0.9611,                                 !- Year Escalation 4
  0.9571,                                 !- Year Escalation 5
  0.9553,                                 !- Year Escalation 6
  0.9539,                                 !- Year Escalation 7
  0.9521,                                 !- Year Escalation 8
  0.9546,                                 !- Year Escalation 9
  0.9550,                                 !- Year Escalation 10
  0.9553,                                 !- Year Escalation 11
  0.9564,                                 !- Year Escalation 12
  0.9575,                                 !- Year Escalation 13
  0.9596,                                 !- Year Escalation 14
  0.9618,                                 !- Year Escalation 15
  0.9614,                                 !- Year Escalation 16
  0.9618,                                 !- Year Escalation 17
  0.9618,                                 !- Year Escalation 18
  0.9593,                                 !- Year Escalation 19
  0.9589,                                 !- Year Escalation 20
  0.9607,                                 !- Year Escalation 21
  0.9625,                                 !- Year Escalation 22
  0.9650,                                 !- Year Escalation 23
  0.9708,                                 !- Year Escalation 24
  0.9751,                                 !- Year Escalation 25
  0.9762,                                 !- Year Escalation 26
  0.9766,                                 !- Year Escalation 27
  0.9766,                                 !- Year Escalation 28
  0.9769,                                 !- Year Escalation 29
  0.9773;                                 !- Year Escalation 30

LifeCycleCost:UsePriceEscalation,
  U.S. Avg  Commercial-Distillate Oil,    !- LCC Price Escalation Name
  FuelOil#1,                              !- Resource
  2011,                                   !- Escalation Start Year
  January,                                !- Escalation Start Month
  0.9714,                                 !- Year Escalation 1
  0.9730,                                 !- Year Escalation 2
  0.9942,                                 !- Year Escalation 3
  1.0164,                                 !- Year Escalation 4
  1.0541,                                 !- Year Escalation 5
  1.0928,                                 !- Year Escalation 6
  1.1267,                                 !- Year Escalation 7
  1.1580,                                 !- Year Escalation 8
  1.1792,                                 !- Year Escalation 9
  1.1967,                                 !- Year Escalation 10
  1.2200,                                 !- Year Escalation 11
  1.2333,                                 !- Year Escalation 12
  1.2566,                                 !- Year Escalation 13
  1.2709,                                 !- Year Escalation 14
  1.2826,                                 !- Year Escalation 15
  1.2985,                                 !- Year Escalation 16
  1.3102,                                 !- Year Escalation 17
  1.3250,                                 !- Year Escalation 18
  1.3261,                                 !- Year Escalation 19
  1.3282,                                 !- Year Escalation 20
  1.3324,                                 !- Year Escalation 21
  1.3356,                                 !- Year Escalation 22
  1.3431,                                 !- Year Escalation 23
  1.3510,                                 !- Year Escalation 24
  1.3568,                                 !- Year Escalation 25
  1.3606,                                 !- Year Escalation 26
  1.3637,                                 !- Year Escalation 27
  1.3674,                                 !- Year Escalation 28
  1.3706,                                 !- Year Escalation 29
  1.3743;                                 !- Year Escalation 30

LifeCycleCost:UsePriceEscalation,
  U.S. Avg  Commercial-Residual Oil,      !- LCC Price Escalation Name
  FuelOil#2,                              !- Resource
  2011,                                   !- Escalation Start Year
  January,                                !- Escalation Start Month
  0.8469,                                 !- Year Escalation 1
  0.8257,                                 !- Year Escalation 2
  0.8681,                                 !- Year Escalation 3
  0.8988,                                 !- Year Escalation 4
  0.9289,                                 !- Year Escalation 5
  0.9604,                                 !- Year Escalation 6
  0.9897,                                 !- Year Escalation 7
  1.0075,                                 !- Year Escalation 8
  1.0314,                                 !- Year Escalation 9
  1.0554,                                 !- Year Escalation 10
  1.0861,                                 !- Year Escalation 11
  1.1278,                                 !- Year Escalation 12
  1.1497,                                 !- Year Escalation 13
  1.1620,                                 !- Year Escalation 14
  1.1743,                                 !- Year Escalation 15
  1.1852,                                 !- Year Escalation 16
  1.1948,                                 !- Year Escalation 17
  1.2037,                                 !- Year Escalation 18
  1.2071,                                 !- Year Escalation 19
  1.2119,                                 !- Year Escalation 20
  1.2139,                                 !- Year Escalation 21
  1.2194,                                 !- Year Escalation 22
  1.2276,                                 !- Year Escalation 23
  1.2365,                                 !- Year Escalation 24
  1.2420,                                 !- Year Escalation 25
  1.2461,                                 !- Year Escalation 26
  1.2509,                                 !- Year Escalation 27
  1.2550,                                 !- Year Escalation 28
  1.2591,                                 !- Year Escalation 29
  1.2638;                                 !- Year Escalation 30

LifeCycleCost:UsePriceEscalation,
  U.S. Avg  Commercial-Natural gas,       !- LCC Price Escalation Name
  NaturalGas,                             !- Resource
  2011,                                   !- Escalation Start Year
  January,                                !- Escalation Start Month
  0.9823,                                 !- Year Escalation 1
  0.9557,                                 !- Year Escalation 2
  0.9279,                                 !- Year Escalation 3
  0.9257,                                 !- Year Escalation 4
  0.9346,                                 !- Year Escalation 5
  0.9412,                                 !- Year Escalation 6
  0.9512,                                 !- Year Escalation 7
  0.9645,                                 !- Year Escalation 8
  0.9856,                                 !- Year Escalation 9
  1.0067,                                 !- Year Escalation 10
  1.0222,                                 !- Year Escalation 11
  1.0410,                                 !- Year Escalation 12
  1.0610,                                 !- Year Escalation 13
  1.0787,                                 !- Year Escalation 14
  1.0942,                                 !- Year Escalation 15
  1.1098,                                 !- Year Escalation 16
  1.1220,                                 !- Year Escalation 17
  1.1308,                                 !- Year Escalation 18
  1.1386,                                 !- Year Escalation 19
  1.1486,                                 !- Year Escalation 20
  1.1619,                                 !- Year Escalation 21
  1.1763,                                 !- Year Escalation 22
  1.1918,                                 !- Year Escalation 23
  1.2118,                                 !- Year Escalation 24
  1.2284,                                 !- Year Escalation 25
  1.2439,                                 !- Year Escalation 26
  1.2605,                                 !- Year Escalation 27
  1.2772,                                 !- Year Escalation 28
  1.2938,                                 !- Year Escalation 29
  1.3115;                                 !- Year Escalation 30

LifeCycleCost:UsePriceEscalation,
  U.S. Avg  Commercial-Coal,              !- LCC Price Escalation Name
  Coal,                                   !- Resource
  2011,                                   !- Escalation Start Year
  January,                                !- Escalation Start Month
  0.9970,                                 !- Year Escalation 1
  1.0089,                                 !- Year Escalation 2
  1.0089,                                 !- Year Escalation 3
  0.9941,                                 !- Year Escalation 4
  0.9941,                                 !- Year Escalation 5
  1.0000,                                 !- Year Escalation 6
  1.0030,                                 !- Year Escalation 7
  1.0059,                                 !- Year Escalation 8
  1.0089,                                 !- Year Escalation 9
  1.0119,                                 !- Year Escalation 10
  1.0148,                                 !- Year Escalation 11
  1.0178,                                 !- Year Escalation 12
  1.0208,                                 !- Year Escalation 13
  1.0267,                                 !- Year Escalation 14
  1.0297,                                 !- Year Escalation 15
  1.0356,                                 !- Year Escalation 16
  1.0415,                                 !- Year Escalation 17
  1.0534,                                 !- Year Escalation 18
  1.0564,                                 !- Year Escalation 19
  1.0593,                                 !- Year Escalation 20
  1.0653,                                 !- Year Escalation 21
  1.0712,                                 !- Year Escalation 22
  1.0742,                                 !- Year Escalation 23
  1.0801,                                 !- Year Escalation 24
  1.0831,                                 !- Year Escalation 25
  1.0831,                                 !- Year Escalation 26
  1.0861,                                 !- Year Escalation 27
  1.0890,                                 !- Year Escalation 28
  1.0920,                                 !- Year Escalation 29
  1.0950;                                 !- Year Escalation 30

Building,
  LargeHotel-CAN_BC_Vancouver.Intl.AP.718920_CWEC2016.epw created: 2018-09-18 17:19:42 +0000, !- Name
  0,                                      !- North Axis {deg}
  City,                                   !- Terrain
  0.04,                                   !- Loads Convergence Tolerance Value
  0.2,                                    !- Temperature Convergence Tolerance Value {deltaC}
  FullInteriorAndExterior,                !- Solar Distribution
  25,                                     !- Maximum Number of Warmup Days
  6;                                      !- Minimum Number of Warmup Days

Zone,
  Banquet_Flr_6 ZN,                       !- Name
  0,                                      !- Direction of Relative North {deg}
  0,                                      !- X Origin {m}
  0,                                      !- Y Origin {m}
  0,                                      !- Z Origin {m}
  ,                                       !- Type
  ,                                       !- Multiplier
  ,                                       !- Ceiling Height {m}
  ,                                       !- Volume {m3}
  ,                                       !- Floor Area {m2}
  ,                                       !- Zone Inside Convection Algorithm
  ,                                       !- Zone Outside Convection Algorithm
  Yes;                                    !- Part of Total Floor Area

BuildingSurface:Detailed,
  Banquet_Flr_6_Ceiling,                  !- Name
  Roof,                                   !- Surface Type
  BTAP-Ext-Roof-Metal:U-0.227,            !- Construction Name
  Banquet_Flr_6 ZN,                       !- Zone Name
  Outdoors,                               !- Outside Boundary Condition
  ,                                       !- Outside Boundary Condition Object
  SunExposed,                             !- Sun Exposure
  WindExposed,                            !- Wind Exposure
  ,                                       !- View Factor to Ground
  ,                                       !- Number of Vertices
  42.367, 12.497, 19.2,                   !- X,Y,Z Vertex 1 {m}
  42.367, 22.86, 19.2,                    !- X,Y,Z Vertex 2 {m}
  10.363, 22.86, 19.2,                    !- X,Y,Z Vertex 3 {m}
  10.363, 12.497, 19.2;                   !- X,Y,Z Vertex 4 {m}

BuildingSurface:Detailed,
  Banquet_Flr_6_Floor,                    !- Name
  Floor,                                  !- Surface Type
  BTAP-Int-Wall,                          !- Construction Name
  Banquet_Flr_6 ZN,                       !- Zone Name
  Adiabatic,                              !- Outside Boundary Condition
  ,                                       !- Outside Boundary Condition Object
  NoSun,                                  !- Sun Exposure
  NoWind,                                 !- Wind Exposure
  ,                                       !- View Factor to Ground
  ,                                       !- Number of Vertices
  42.367, 22.86, 16.152,                  !- X,Y,Z Vertex 1 {m}
  42.367, 12.497, 16.152,                 !- X,Y,Z Vertex 2 {m}
  10.363, 12.497, 16.152,                 !- X,Y,Z Vertex 3 {m}
  10.363, 22.86, 16.152;                  !- X,Y,Z Vertex 4 {m}

BuildingSurface:Detailed,
  Banquet_Flr_6_Wall_East,                !- Name
  Wall,                                   !- Surface Type
  BTAP-Int-Wall,                          !- Construction Name
  Banquet_Flr_6 ZN,                       !- Zone Name
  Surface,                                !- Outside Boundary Condition
  Corridor_Flr_6_Wall_3_West,             !- Outside Boundary Condition Object
  NoSun,                                  !- Sun Exposure
  NoWind,                                 !- Wind Exposure
  ,                                       !- View Factor to Ground
  ,                                       !- Number of Vertices
  42.367, 12.497, 19.2,                   !- X,Y,Z Vertex 1 {m}
  42.367, 12.497, 16.152,                 !- X,Y,Z Vertex 2 {m}
  42.367, 22.86, 16.152,                  !- X,Y,Z Vertex 3 {m}
  42.367, 22.86, 19.2;                    !- X,Y,Z Vertex 4 {m}

BuildingSurface:Detailed,
  Banquet_Flr_6_Wall_North,               !- Name
  Wall,                                   !- Surface Type
  BTAP-Ext-Wall-Mass:U-0.315,             !- Construction Name
  Banquet_Flr_6 ZN,                       !- Zone Name
  Outdoors,                               !- Outside Boundary Condition
  ,                                       !- Outside Boundary Condition Object
  SunExposed,                             !- Sun Exposure
  WindExposed,                            !- Wind Exposure
  ,                                       !- View Factor to Ground
  ,                                       !- Number of Vertices
  42.367, 22.86, 19.2,                    !- X,Y,Z Vertex 1 {m}
  42.367, 22.86, 16.152,                  !- X,Y,Z Vertex 2 {m}
  10.363, 22.86, 16.152,                  !- X,Y,Z Vertex 3 {m}
  10.363, 22.86, 19.2;                    !- X,Y,Z Vertex 4 {m}

FenestrationSurface:Detailed,
  Banquet_Flr_6_Wall_North_Window,        !- Name
  Window,                                 !- Surface Type
  BTAP-Ext-FixedWindow:U=0.240 SHGC=0.600, !- Construction Name
  Banquet_Flr_6_Wall_North,               !- Building Surface Name
  ,                                       !- Outside Boundary Condition Object
  ,                                       !- View Factor to Ground
  ,                                       !- Shading Control Name
  ,                                       !- Frame and Divider Name
  1,                                      !- Multiplier
  ,                                       !- Number of Vertices
  39.567, 22.86, 18.484,                  !- X,Y,Z Vertex 1 {m}
  39.567, 22.86, 17.264,                  !- X,Y,Z Vertex 2 {m}
  13.164, 22.86, 17.264,                  !- X,Y,Z Vertex 3 {m}
  13.164, 22.86, 18.484;                  !- X,Y,Z Vertex 4 {m}

BuildingSurface:Detailed,
  Banquet_Flr_6_Wall_South,               !- Name
  Wall,                                   !- Surface Type
  BTAP-Int-Wall,                          !- Construction Name
  Banquet_Flr_6 ZN,                       !- Zone Name
  Surface,                                !- Outside Boundary Condition
  Corridor_Flr_6_Wall_3_North,            !- Outside Boundary Condition Object
  NoSun,                                  !- Sun Exposure
  NoWind,                                 !- Wind Exposure
  ,                                       !- View Factor to Ground
  ,                                       !- Number of Vertices
  10.363, 12.497, 19.2,                   !- X,Y,Z Vertex 1 {m}
  10.363, 12.497, 16.152,                 !- X,Y,Z Vertex 2 {m}
  42.367, 12.497, 16.152,                 !- X,Y,Z Vertex 3 {m}
  42.367, 12.497, 19.2;                   !- X,Y,Z Vertex 4 {m}

BuildingSurface:Detailed,
  Banquet_Flr_6_Wall_West,                !- Name
  Wall,                                   !- Surface Type
  BTAP-Int-Wall,                          !- Construction Name
  Banquet_Flr_6 ZN,                       !- Zone Name
  Surface,                                !- Outside Boundary Condition
  Corridor_Flr_6_Wall_1_East,             !- Outside Boundary Condition Object
  NoSun,                                  !- Sun Exposure
  NoWind,                                 !- Wind Exposure
  ,                                       !- View Factor to Ground
  ,                                       !- Number of Vertices
  10.363, 22.86, 19.2,                    !- X,Y,Z Vertex 1 {m}
  10.363, 22.86, 16.152,                  !- X,Y,Z Vertex 2 {m}
  10.363, 12.497, 16.152,                 !- X,Y,Z Vertex 3 {m}
  10.363, 12.497, 19.2;                   !- X,Y,Z Vertex 4 {m}

ZoneInfiltration:DesignFlowRate,
  Banquet_Flr_6 Infiltration,             !- Name
  Banquet_Flr_6 ZN,                       !- Zone or ZoneList Name
  Always On Discrete,                     !- Schedule Name
  Flow/ExteriorArea,                      !- Design Flow Rate Calculation Method
  ,                                       !- Design Flow Rate {m3/s}
  ,                                       !- Flow per Zone Floor Area {m3/s-m2}
  0.00025,                                !- Flow per Exterior Surface Area {m3/s-m2}
  ,                                       !- Air Changes per Hour {1/hr}
  0,                                      !- Constant Term Coefficient
  0,                                      !- Temperature Term Coefficient
  0.224,                                  !- Velocity Term Coefficient
  0;                                      !- Velocity Squared Term Coefficient

ZoneControl:Thermostat,
  Banquet_Flr_6 ZN Thermostat,            !- Name
  Banquet_Flr_6 ZN,                       !- Zone or ZoneList Name
  Banquet_Flr_6 ZN Thermostat Schedule,   !- Control Type Schedule Name
  ThermostatSetpoint:DualSetpoint,        !- Control Object Type 1
  Space Function Dining area - other Thermostat 1; !- Control Name 1

Schedule:Compact,
  Banquet_Flr_6 ZN Thermostat Schedule,   !- Name
  Banquet_Flr_6 ZN Thermostat Schedule Type Limits, !- Schedule Type Limits Name
  Through: 12/31,                         !- Field 1
  For: AllDays,                           !- Field 2
  Until: 24:00,                           !- Field 3
  4;                                      !- Field 4

ScheduleTypeLimits,
  Banquet_Flr_6 ZN Thermostat Schedule Type Limits, !- Name
  0,                                      !- Lower Limit Value {BasedOnField A3}
  4,                                      !- Upper Limit Value {BasedOnField A3}
  DISCRETE;                               !- Numeric Type

ThermostatSetpoint:DualSetpoint,
  Space Function Dining area - other Thermostat 1, !- Name
  NECB-B-Thermostat Setpoint-Heating,     !- Heating Setpoint Temperature Schedule Name
  NECB-B-Thermostat Setpoint-Cooling;     !- Cooling Setpoint Temperature Schedule Name

ScheduleTypeLimits,
  Temperature,                            !- Name
  ,                                       !- Lower Limit Value {BasedOnField A3}
  ,                                       !- Upper Limit Value {BasedOnField A3}
  Continuous,                             !- Numeric Type
  temperature;                            !- Unit Type

Schedule:Day:Interval,
  NECB-B-Thermostat Setpoint-Heating Sun|Hol Day, !- Name
  Temperature,                            !- Schedule Type Limits Name
  No,                                     !- Interpolate to Timestep
  01:00,                                  !- Time 1 {hh:mm}
  18,                                     !- Value Until Time 1
  02:00,                                  !- Time 2 {hh:mm}
  22,                                     !- Value Until Time 2
  09:00,                                  !- Time 3 {hh:mm}
  18,                                     !- Value Until Time 3
  10:00,                                  !- Time 4 {hh:mm}
  20,                                     !- Value Until Time 4
  23:00,                                  !- Time 5 {hh:mm}
  22,                                     !- Value Until Time 5
  24:00,                                  !- Time 6 {hh:mm}
  18;                                     !- Value Until Time 6

Schedule:Day:Interval,
  NECB-B-Thermostat Setpoint-Heating Default|Wkdy Day, !- Name
  Temperature,                            !- Schedule Type Limits Name
  No,                                     !- Interpolate to Timestep
  02:00,                                  !- Time 1 {hh:mm}
  22,                                     !- Value Until Time 1
  08:00,                                  !- Time 2 {hh:mm}
  18,                                     !- Value Until Time 2
  09:00,                                  !- Time 3 {hh:mm}
  20,                                     !- Value Until Time 3
  24:00,                                  !- Time 4 {hh:mm}
  22;                                     !- Value Until Time 4

Schedule:Day:Interval,
  NECB-B-Thermostat Setpoint-Heating Sat Day, !- Name
  Temperature,                            !- Schedule Type Limits Name
  No,                                     !- Interpolate to Timestep
  02:00,                                  !- Time 1 {hh:mm}
  22,                                     !- Value Until Time 1
  08:00,                                  !- Time 2 {hh:mm}
  18,                                     !- Value Until Time 2
  09:00,                                  !- Time 3 {hh:mm}
  20,                                     !- Value Until Time 3
  24:00,                                  !- Time 4 {hh:mm}
  22;                                     !- Value Until Time 4

Schedule:Week:Daily,
  NECB-B-Thermostat Setpoint-Heating Week Rule - Jan1-Dec31, !- Name
  NECB-B-Thermostat Setpoint-Heating Sun|Hol Day, !- Sunday Schedule:Day Name
  NECB-B-Thermostat Setpoint-Heating Default|Wkdy Day, !- Monday Schedule:Day Name
  NECB-B-Thermostat Setpoint-Heating Default|Wkdy Day, !- Tuesday Schedule:Day Name
  NECB-B-Thermostat Setpoint-Heating Default|Wkdy Day, !- Wednesday Schedule:Day Name
  NECB-B-Thermostat Setpoint-Heating Default|Wkdy Day, !- Thursday Schedule:Day Name
  NECB-B-Thermostat Setpoint-Heating Default|Wkdy Day, !- Friday Schedule:Day Name
  NECB-B-Thermostat Setpoint-Heating Sat Day, !- Saturday Schedule:Day Name
  NECB-B-Thermostat Setpoint-Heating Default, !- Holiday Schedule:Day Name
  NECB-B-Thermostat Setpoint-Heating Default, !- SummerDesignDay Schedule:Day Name
  NECB-B-Thermostat Setpoint-Heating Default, !- WinterDesignDay Schedule:Day Name
  NECB-B-Thermostat Setpoint-Heating Default, !- CustomDay1 Schedule:Day Name
  NECB-B-Thermostat Setpoint-Heating Default; !- CustomDay2 Schedule:Day Name

Schedule:Year,
  NECB-B-Thermostat Setpoint-Heating,     !- Name
  Temperature,                            !- Schedule Type Limits Name
  NECB-B-Thermostat Setpoint-Heating Week Rule - Jan1-Dec31, !- Schedule:Week Name 1
  1,                                      !- Start Month 1
  1,                                      !- Start Day 1
  12,                                     !- End Month 1
  31;                                     !- End Day 1

Schedule:Day:Interval,
  NECB-B-Thermostat Setpoint-Heating Default, !- Name
  Temperature,                            !- Schedule Type Limits Name
  No,                                     !- Interpolate to Timestep
  02:00,                                  !- Time 1 {hh:mm}
  22,                                     !- Value Until Time 1
  08:00,                                  !- Time 2 {hh:mm}
  18,                                     !- Value Until Time 2
  09:00,                                  !- Time 3 {hh:mm}
  20,                                     !- Value Until Time 3
  24:00,                                  !- Time 4 {hh:mm}
  22;                                     !- Value Until Time 4

Schedule:Day:Interval,
  NECB-B-Thermostat Setpoint-Cooling Sun|Hol Day, !- Name
  Temperature,                            !- Schedule Type Limits Name
  No,                                     !- Interpolate to Timestep
  09:00,                                  !- Time 1 {hh:mm}
  35,                                     !- Value Until Time 1
  23:00,                                  !- Time 2 {hh:mm}
  24,                                     !- Value Until Time 2
  24:00,                                  !- Time 3 {hh:mm}
  35;                                     !- Value Until Time 3

Schedule:Day:Interval,
  NECB-B-Thermostat Setpoint-Cooling Default|Wkdy Day, !- Name
  Temperature,                            !- Schedule Type Limits Name
  No,                                     !- Interpolate to Timestep
  01:00,                                  !- Time 1 {hh:mm}
  24,                                     !- Value Until Time 1
  08:00,                                  !- Time 2 {hh:mm}
  35,                                     !- Value Until Time 2
  24:00,                                  !- Time 3 {hh:mm}
  24;                                     !- Value Until Time 3

Schedule:Day:Interval,
  NECB-B-Thermostat Setpoint-Cooling Sat Day, !- Name
  Temperature,                            !- Schedule Type Limits Name
  No,                                     !- Interpolate to Timestep
  01:00,                                  !- Time 1 {hh:mm}
  24,                                     !- Value Until Time 1
  08:00,                                  !- Time 2 {hh:mm}
  35,                                     !- Value Until Time 2
  24:00,                                  !- Time 3 {hh:mm}
  24;                                     !- Value Until Time 3

Schedule:Week:Daily,
  NECB-B-Thermostat Setpoint-Cooling Week Rule - Jan1-Dec31, !- Name
  NECB-B-Thermostat Setpoint-Cooling Sun|Hol Day, !- Sunday Schedule:Day Name
  NECB-B-Thermostat Setpoint-Cooling Default|Wkdy Day, !- Monday Schedule:Day Name
  NECB-B-Thermostat Setpoint-Cooling Default|Wkdy Day, !- Tuesday Schedule:Day Name
  NECB-B-Thermostat Setpoint-Cooling Default|Wkdy Day, !- Wednesday Schedule:Day Name
  NECB-B-Thermostat Setpoint-Cooling Default|Wkdy Day, !- Thursday Schedule:Day Name
  NECB-B-Thermostat Setpoint-Cooling Default|Wkdy Day, !- Friday Schedule:Day Name
  NECB-B-Thermostat Setpoint-Cooling Sat Day, !- Saturday Schedule:Day Name
  NECB-B-Thermostat Setpoint-Cooling Default, !- Holiday Schedule:Day Name
  NECB-B-Thermostat Setpoint-Cooling Default, !- SummerDesignDay Schedule:Day Name
  NECB-B-Thermostat Setpoint-Cooling Default, !- WinterDesignDay Schedule:Day Name
  NECB-B-Thermostat Setpoint-Cooling Default, !- CustomDay1 Schedule:Day Name
  NECB-B-Thermostat Setpoint-Cooling Default; !- CustomDay2 Schedule:Day Name

Schedule:Year,
  NECB-B-Thermostat Setpoint-Cooling,     !- Name
  Temperature,                            !- Schedule Type Limits Name