
Version,
  8.9;                                    !- Version Identifier

Timestep,
  4;                                      !- Number of Timesteps per Hour

LifeCycleCost:Parameters,
  Life Cycle Cost Parameters,             !- Name
  EndOfYear,                              !- Discounting Convention
  ConstantDollar,                         !- Inflation Approach
  0.03,                                   !- Real Discount Rate
  ,                                       !- Nominal Discount Rate
  ,                                       !- Inflation
  ,                                       !- Base Date Month
  2011,                                   !- Base Date Year
  ,                                       !- Service Date Month
  2011,                                   !- Service Date Year
  25,                                     !- Length of Study Period in Years
  ,                                       !- Tax rate
  None;                                   !- Depreciation Method

LifeCycleCost:UsePriceEscalation,
  U.S. Avg  Commercial-Electricity,       !- LCC Price Escalation Name
  Electricity,                            !- Resource
  2011,                                   !- Escalation Start Year
  January,                                !- Escalation Start Month
  0.9838,                                 !- Year Escalation 1
  0.9730,                                 !- Year Escalation 2
  0.9632,                                 !- Year Escalation 3
  0.9611,                                 !- Year Escalation 4
  0.9571,                                 !- Year Escalation 5
  0.9553,                                 !- Year Escalation 6
  0.9539,                                 !- Year Escalation 7
  0.9521,                                 !- Year Escalation 8
  0.9546,                                 !- Year Escalation 9
  0.9550,                                 !- Year Escalation 10
  0.9553,                                 !- Year Escalation 11
  0.9564,                                 !- Year Escalation 12
  0.9575,                                 !- Year Escalation 13
  0.9596,                                 !- Year Escalation 14
  0.9618,                                 !- Year Escalation 15
  0.9614,                                 !- Year Escalation 16
  0.9618,                                 !- Year Escalation 17
  0.9618,                                 !- Year Escalation 18
  0.9593,                                 !- Year Escalation 19
  0.9589,                                 !- Year Escalation 20
  0.9607,                                 !- Year Escalation 21
  0.9625,                                 !- Year Escalation 22
  0.9650,                                 !- Year Escalation 23
  0.9708,                                 !- Year Escalation 24
  0.9751,                                 !- Year Escalation 25
  0.9762,                                 !- Year Escalation 26
  0.9766,                                 !- Year Escalation 27
  0.9766,                                 !- Year Escalation 28
  0.9769,                                 !- Year Escalation 29
  0.9773;                                 !- Year Escalation 30

LifeCycleCost:UsePriceEscalation,
  U.S. Avg  Commercial-Distillate Oil,    !- LCC Price Escalation Name
  FuelOil#1,                              !- Resource
  2011,                                   !- Escalation Start Year
  January,                                !- Escalation Start Month
  0.9714,                                 !- Year Escalation 1
  0.9730,                                 !- Year Escalation 2
  0.9942,                                 !- Year Escalation 3
  1.0164,                                 !- Year Escalation 4
  1.0541,                                 !- Year Escalation 5
  1.0928,                                 !- Year Escalation 6
  1.1267,                                 !- Year Escalation 7
  1.1580,                                 !- Year Escalation 8
  1.1792,                                 !- Year Escalation 9
  1.1967,                                 !- Year Escalation 10
  1.2200,                                 !- Year Escalation 11
  1.2333,                                 !- Year Escalation 12
  1.2566,                                 !- Year Escalation 13
  1.2709,                                 !- Year Escalation 14
  1.2826,                                 !- Year Escalation 15
  1.2985,                                 !- Year Escalation 16
  1.3102,                                 !- Year Escalation 17
  1.3250,                                 !- Year Escalation 18
  1.3261,                                 !- Year Escalation 19
  1.3282,                                 !- Year Escalation 20
  1.3324,                                 !- Year Escalation 21
  1.3356,                                 !- Year Escalation 22
  1.3431,                                 !- Year Escalation 23
  1.3510,                                 !- Year Escalation 24
  1.3568,                                 !- Year Escalation 25
  1.3606,                                 !- Year Escalation 26
  1.3637,                                 !- Year Escalation 27
  1.3674,                                 !- Year Escalation 28
  1.3706,                                 !- Year Escalation 29
  1.3743;                                 !- Year Escalation 30

LifeCycleCost:UsePriceEscalation,
  U.S. Avg  Commercial-Residual Oil,      !- LCC Price Escalation Name
  FuelOil#2,                              !- Resource
  2011,                                   !- Escalation Start Year
  January,                                !- Escalation Start Month
  0.8469,                                 !- Year Escalation 1
  0.8257,                                 !- Year Escalation 2
  0.8681,                                 !- Year Escalation 3
  0.8988,                                 !- Year Escalation 4
  0.9289,                                 !- Year Escalation 5
  0.9604,                                 !- Year Escalation 6
  0.9897,                                 !- Year Escalation 7
  1.0075,                                 !- Year Escalation 8
  1.0314,                                 !- Year Escalation 9
  1.0554,                                 !- Year Escalation 10
  1.0861,                                 !- Year Escalation 11
  1.1278,                                 !- Year Escalation 12
  1.1497,                                 !- Year Escalation 13
  1.1620,                                 !- Year Escalation 14
  1.1743,                                 !- Year Escalation 15
  1.1852,                                 !- Year Escalation 16
  1.1948,                                 !- Year Escalation 17
  1.2037,                                 !- Year Escalation 18
  1.2071,                                 !- Year Escalation 19
  1.2119,                                 !- Year Escalation 20
  1.2139,                                 !- Year Escalation 21
  1.2194,                                 !- Year Escalation 22
  1.2276,                                 !- Year Escalation 23
  1.2365,                                 !- Year Escalation 24
  1.2420,                                 !- Year Escalation 25
  1.2461,                                 !- Year Escalation 26
  1.2509,                                 !- Year Escalation 27
  1.2550,                                 !- Year Escalation 28
  1.2591,                                 !- Year Escalation 29
  1.2638;                                 !- Year Escalation 30

LifeCycleCost:UsePriceEscalation,
  U.S. Avg  Commercial-Natural gas,       !- LCC Price Escalation Name
  NaturalGas,                             !- Resource
  2011,                                   !- Escalation Start Year
  January,                                !- Escalation Start Month
  0.9823,                                 !- Year Escalation 1
  0.9557,                                 !- Year Escalation 2
  0.9279,                                 !- Year Escalation 3
  0.9257,                                 !- Year Escalation 4
  0.9346,                                 !- Year Escalation 5
  0.9412,                                 !- Year Escalation 6
  0.9512,                                 !- Year Escalation 7
  0.9645,                                 !- Year Escalation 8
  0.9856,                                 !- Year Escalation 9
  1.0067,                                 !- Year Escalation 10
  1.0222,                                 !- Year Escalation 11
  1.0410,                                 !- Year Escalation 12
  1.0610,                                 !- Year Escalation 13
  1.0787,                                 !- Year Escalation 14
  1.0942,                                 !- Year Escalation 15
  1.1098,                                 !- Year Escalation 16
  1.1220,                                 !- Year Escalation 17
  1.1308,                                 !- Year Escalation 18
  1.1386,                                 !- Year Escalation 19
  1.1486,                                 !- Year Escalation 20
  1.1619,                                 !- Year Escalation 21
  1.1763,                                 !- Year Escalation 22
  1.1918,                                 !- Year Escalation 23
  1.2118,                                 !- Year Escalation 24
  1.2284,                                 !- Year Escalation 25
  1.2439,                                 !- Year Escalation 26
  1.2605,                                 !- Year Escalation 27
  1.2772,                                 !- Year Escalation 28
  1.2938,                                 !- Year Escalation 29
  1.3115;                                 !- Year Escalation 30

LifeCycleCost:UsePriceEscalation,
  U.S. Avg  Commercial-Coal,              !- LCC Price Escalation Name
  Coal,                                   !- Resource
  2011,                                   !- Escalation Start Year
  January,                                !- Escalation Start Month
  0.9970,                                 !- Year Escalation 1
  1.0089,                                 !- Year Escalation 2
  1.0089,                                 !- Year Escalation 3
  0.9941,                                 !- Year Escalation 4
  0.9941,                                 !- Year Escalation 5
  1.0000,                                 !- Year Escalation 6
  1.0030,                                 !- Year Escalation 7
  1.0059,                                 !- Year Escalation 8
  1.0089,                                 !- Year Escalation 9
  1.0119,                                 !- Year Escalation 10
  1.0148,                                 !- Year Escalation 11
  1.0178,                                 !- Year Escalation 12
  1.0208,                                 !- Year Escalation 13
  1.0267,                                 !- Year Escalation 14
  1.0297,                                 !- Year Escalation 15
  1.0356,                                 !- Year Escalation 16
  1.0415,                                 !- Year Escalation 17
  1.0534,                                 !- Year Escalation 18
  1.0564,                                 !- Year Escalation 19
  1.0593,                                 !- Year Escalation 20
  1.0653,                                 !- Year Escalation 21
  1.0712,                                 !- Year Escalation 22
  1.0742,                                 !- Year Escalation 23
  1.0801,                                 !- Year Escalation 24
  1.0831,                                 !- Year Escalation 25
  1.0831,                                 !- Year Escalation 26
  1.0861,                                 !- Year Escalation 27
  1.0890,                                 !- Year Escalation 28
  1.0920,                                 !- Year Escalation 29
  1.0950;                                 !- Year Escalation 30

Building,
  SmallHotel-CAN_BC_Vancouver.Intl.AP.718920_CWEC2016.epw created: 2018-09-18 17:35:47 +0000, !- Name
  180,                                    !- North Axis {deg}
  Suburbs,                                !- Terrain
  0.04,                                   !- Loads Convergence Tolerance Value
  0.4,                                    !- Temperature Convergence Tolerance Value {deltaC}
  FullExterior,                           !- Solar Distribution
  25,                                     !- Maximum Number of Warmup Days
  6;                                      !- Minimum Number of Warmup Days

Zone,
  CorridorFlr1 ZN,                        !- Name
  0,                                      !- Direction of Relative North {deg}
  0,                                      !- X Origin {m}
  0,                                      !- Y Origin {m}
  0,                                      !- Z Origin {m}
  ,                                       !- Type
  ,                                       !- Multiplier
  ,                                       !- Ceiling Height {m}
  ,                                       !- Volume {m3}
  ,                                       !- Floor Area {m2}
  ,                                       !- Zone Inside Convection Algorithm
  ;                                       !- Zone Outside Convection Algorithm

BuildingSurface:Detailed,
  C_CorridorFlr1_1_0_0,                   !- Name
  Ceiling,                                !- Surface Type
  BTAP-Int-Ceiling,                       !- Construction Name
  CorridorFlr1 ZN,                        !- Zone Name
  Surface,                                !- Outside Boundary Condition
  F_CorridorFlr2_10004_0_10003,           !- Outside Boundary Condition Object
  NoSun,                                  !- Sun Exposure
  NoWind,                                 !- Wind Exposure
  ,                                       !- View Factor to Ground
  ,                                       !- Number of Vertices
  54.91326842, 8.27902922, 3.3528,        !- X,Y,Z Vertex 1 {m}
  54.91326842, 10.10782922, 3.3528,       !- X,Y,Z Vertex 2 {m}
  26.87108442, 10.10782922, 3.3528,       !- X,Y,Z Vertex 3 {m}
  26.87108442, 18.33742922, 3.3528,       !- X,Y,Z Vertex 4 {m}
  23.82308442, 18.33742922, 3.3528,       !- X,Y,Z Vertex 5 {m}
  23.82308442, 10.10782922, 3.3528,       !- X,Y,Z Vertex 6 {m}
  0.04868442, 10.10782922, 3.3528,        !- X,Y,Z Vertex 7 {m}
  0.04868442, 8.27902922, 3.3528;         !- X,Y,Z Vertex 8 {m}

BuildingSurface:Detailed,
  C_CorridorFlr1_1_1_0,                   !- Name
  Ceiling,                                !- Surface Type
  BTAP-Int-Ceiling,                       !- Construction Name
  CorridorFlr1 ZN,                        !- Zone Name
  Surface,                                !- Outside Boundary Condition
  F_GuestRoom206_208_10005_0_10004,       !- Outside Boundary Condition Object
  NoSun,                                  !- Sun Exposure
  NoWind,                                 !- Wind Exposure
  ,                                       !- View Factor to Ground
  ,                                       !- Number of Vertices
  26.87108442, 0.04884522, 3.3528,        !- X,Y,Z Vertex 1 {m}
  26.87108442, 8.27902922, 3.3528,        !- X,Y,Z Vertex 2 {m}
  23.82308442, 8.27902922, 3.3528,        !- X,Y,Z Vertex 3 {m}
  23.82308442, 0.04884522, 3.3528;        !- X,Y,Z Vertex 4 {m}

BuildingSurface:Detailed,
  P_CorridorFlr1_10003_0_10002,           !- Name
  Wall,                                   !- Surface Type
  BTAP-Int-Wall,                          !- Construction Name
  CorridorFlr1 ZN,                        !- Zone Name
  Surface,                                !- Outside Boundary Condition
  P_RearStairsFlr1_5_0_0,                 !- Outside Boundary Condition Object
  NoSun,                                  !- Sun Exposure
  NoWind,                                 !- Wind Exposure
  ,                                       !- View Factor to Ground
  ,                                       !- Number of Vertices
  54.91326842, 10.1078292198, 3.3528,     !- X,Y,Z Vertex 1 {m}
  54.91326842, 10.1078292198, 0,          !- X,Y,Z Vertex 2 {m}
  52.47428442, 10.1078292198, 0,          !- X,Y,Z Vertex 3 {m}
  52.47428442, 10.1078292198, 3.3528;     !- X,Y,Z Vertex 4 {m}

BuildingSurface:Detailed,
  P_CorridorFlr1_11_0_0,                  !- Name
  Wall,                                   !- Surface Type
  BTAP-Int-Wall,                          !- Construction Name
  CorridorFlr1 ZN,                        !- Zone Name
  Surface,                                !- Outside Boundary Condition
  P_ExerciseCenterFlr1_10013_0_10011,     !- Outside Boundary Condition Object
  NoSun,                                  !- Sun Exposure
  NoWind,                                 !- Wind Exposure
  ,                                       !- View Factor to Ground
  ,                                       !- Number of Vertices
  23.8230844241, 18.33742922, 3.3528,     !- X,Y,Z Vertex 1 {m}
  23.8230844241, 18.33742922, 0,          !- X,Y,Z Vertex 2 {m}
  23.8230844241, 10.10782922, 0,          !- X,Y,Z Vertex 3 {m}
  23.8230844241, 10.10782922, 3.3528;     !- X,Y,Z Vertex 4 {m}

BuildingSurface:Detailed,
  P_CorridorFlr1_12_0_0,                  !- Name
  Wall,                                   !- Surface Type
  BTAP-Int-Wall,                          !- Construction Name
  CorridorFlr1 ZN,                        !- Zone Name
  Surface,                                !- Outside Boundary Condition
  P_ExerciseCenterFlr1_10014_0_10012,     !- Outside Boundary Condition Object
  NoSun,                                  !- Sun Exposure
  NoWind,                                 !- Wind Exposure
  ,                                       !- View Factor to Ground
  ,                                       !- Number of Vertices
  23.82308442, 10.1078292198, 3.3528,     !- X,Y,Z Vertex 1 {m}
  23.82308442, 10.1078292198, 0,          !- X,Y,Z Vertex 2 {m}
  19.86068442, 10.1078292198, 0,          !- X,Y,Z Vertex 3 {m}
  19.86068442, 10.1078292198, 3.3528;     !- X,Y,Z Vertex 4 {m}

BuildingSurface:Detailed,
  P_CorridorFlr1_13_0_0,                  !- Name
  Wall,                                   !- Surface Type
  BTAP-Int-Wall,                          !- Construction Name
  CorridorFlr1 ZN,                        !- Zone Name
  Surface,                                !- Outside Boundary Condition
  P_FrontOfficeFlr1_10015_0_10013,        !- Outside Boundary Condition Object
  NoSun,                                  !- Sun Exposure
  NoWind,                                 !- Wind Exposure
  ,                                       !- View Factor to Ground
  ,                                       !- Number of Vertices
  19.86068442, 10.1078292198, 3.3528,     !- X,Y,Z Vertex 1 {m}
  19.86068442, 10.1078292198, 0,          !- X,Y,Z Vertex 2 {m}
  4.01108442, 10.1078292198, 0,           !- X,Y,Z Vertex 3 {m}
  4.01108442, 10.1078292198, 3.3528;      !- X,Y,Z Vertex 4 {m}

BuildingSurface:Detailed,
  P_CorridorFlr1_14_0_0,                  !- Name
  Wall,                                   !- Surface Type
  BTAP-Int-Wall,                          !- Construction Name
  CorridorFlr1 ZN,                        !- Zone Name
  Surface,                                !- Outside Boundary Condition
  P_FrontStorageFlr1_10016_0_10014,       !- Outside Boundary Condition Object
  NoSun,                                  !- Sun Exposure
  NoWind,                                 !- Wind Exposure
  ,                                       !- View Factor to Ground
  ,                                       !- Number of Vertices
  4.01108442, 10.1078292198, 3.3528,      !- X,Y,Z Vertex 1 {m}
  4.01108442, 10.1078292198, 0,           !- X,Y,Z Vertex 2 {m}
  2.48708442, 10.1078292198, 0,           !- X,Y,Z Vertex 3 {m}
  2.48708442, 10.1078292198, 3.3528;      !- X,Y,Z Vertex 4 {m}

BuildingSurface:Detailed,
  P_CorridorFlr1_15_0_0,                  !- Name
  Wall,                                   !- Surface Type
  BTAP-Int-Wall,                          !- Construction Name
  CorridorFlr1 ZN,                        !- Zone Name
  Surface,                                !- Outside Boundary Condition
  P_FrontStairsFlr1_10017_0_10015,        !- Outside Boundary Condition Object
  NoSun,                                  !- Sun Exposure
  NoWind,                                 !- Wind Exposure
  ,                                       !- View Factor to Ground
  ,                                       !- Number of Vertices
  2.48708442, 10.1078292198, 3.3528,      !- X,Y,Z Vertex 1 {m}
  2.48708442, 10.1078292198, 0,           !- X,Y,Z Vertex 2 {m}
  0.04868442, 10.1078292198, 0,           !- X,Y,Z Vertex 3 {m}
  0.04868442, 10.1078292198, 3.3528;      !- X,Y,Z Vertex 4 {m}

BuildingSurface:Detailed,
  P_CorridorFlr1_17_0_0,                  !- Name
  Wall,                                   !- Surface Type
  BTAP-Int-Wall,                          !- Construction Name
  CorridorFlr1 ZN,                        !- Zone Name
  Surface,                                !- Outside Boundary Condition
  P_FrontLoungeFlr1_10018_0_10016,        !- Outside Boundary Condition Object
  NoSun,                                  !- Sun Exposure
  NoWind,                                 !- Wind Exposure
  ,                                       !- View Factor to Ground
  ,                                       !- Number of Vertices
  0.04868442, 8.2790292198, 3.3528,       !- X,Y,Z Vertex 1 {m}
  0.04868442, 8.2790292198, 0,            !- X,Y,Z Vertex 2 {m}
  19.86068442, 8.2790292198, 0,           !- X,Y,Z Vertex 3 {m}
  19.86068442, 8.2790292198, 3.3528;      !- X,Y,Z Vertex 4 {m}

BuildingSurface:Detailed,
  P_CorridorFlr1_18_0_0,                  !- Name
  Wall,                                   !- Surface Type
  BTAP-Int-Wall,                          !- Construction Name
  CorridorFlr1 ZN,                        !- Zone Name
  Surface,                                !- Outside Boundary Condition
  P_RestroomFlr1_10019_0_10017,           !- Outside Boundary Condition Object
  NoSun,                                  !- Sun Exposure
  NoWind,                                 !- Wind Exposure
  ,                                       !- View Factor to Ground
  ,                                       !- Number of Vertices
  19.86068442, 8.2790292198, 3.3528,      !- X,Y,Z Vertex 1 {m}
  19.86068442, 8.2790292198, 0,           !- X,Y,Z Vertex 2 {m}
  23.82308442, 8.2790292198, 0,           !- X,Y,Z Vertex 3 {m}
  23.82308442, 8.2790292198, 3.3528;      !- X,Y,Z Vertex 4 {m}

BuildingSurface:Detailed,
  P_CorridorFlr1_19_0_0,                  !- Name
  Wall,                                   !- Surface Type
  BTAP-Int-Wall,                          !- Construction Name
  CorridorFlr1 ZN,                        !- Zone Name
  Surface,                                !- Outside Boundary Condition
  P_RestroomFlr1_10020_0_10018,           !- Outside Boundary Condition Object
  NoSun,                                  !- Sun Exposure
  NoWind,                                 !- Wind Exposure
  ,                                       !- View Factor to Ground
  ,                                       !- Number of Vertices
  23.8230844241, 8.27902922, 3.3528,      !- X,Y,Z Vertex 1 {m}
  23.8230844241, 8.27902922, 0,           !- X,Y,Z Vertex 2 {m}
  23.8230844241, 0.04884522, 0,           !- X,Y,Z Vertex 3 {m}
  23.8230844241, 0.04884522, 3.3528;      !- X,Y,Z Vertex 4 {m}

BuildingSurface:Detailed,
  P_CorridorFlr1_21_0_0,                  !- Name
  Wall,                                   !- Surface Type
  BTAP-Int-Wall,                          !- Construction Name
  CorridorFlr1 ZN,                        !- Zone Name
  Surface,                                !- Outside Boundary Condition
  P_MeetingRoomFlr1_10021_0_10019,        !- Outside Boundary Condition Object
  NoSun,                                  !- Sun Exposure
  NoWind,                                 !- Wind Exposure
  ,                                       !- View Factor to Ground
  ,                                       !- Number of Vertices
  26.8710844241, 0.04884522, 3.3528,      !- X,Y,Z Vertex 1 {m}
  26.8710844241, 0.04884522, 0,           !- X,Y,Z Vertex 2 {m}
  26.8710844241, 8.27902922, 0,           !- X,Y,Z Vertex 3 {m}
  26.8710844241, 8.27902922, 3.3528;      !- X,Y,Z Vertex 4 {m}

BuildingSurface:Detailed,
  P_CorridorFlr1_22_0_0,                  !- Name
  Wall,                                   !- Surface Type
  BTAP-Int-Wall,                          !- Construction Name
  CorridorFlr1 ZN,                        !- Zone Name
  Surface,                                !- Outside Boundary Condition
  P_MeetingRoomFlr1_10022_0_10020,        !- Outside Boundary Condition Object
  NoSun,                                  !- Sun Exposure
  NoWind,                                 !- Wind Exposure
  ,                                       !- View Factor to Ground
  ,                                       !- Number of Vertices
  26.87108442, 8.2790292198, 3.3528,      !- X,Y,Z Vertex 1 {m}
  26.87108442, 8.2790292198, 0,           !- X,Y,Z Vertex 2 {m}
  36.62468442, 8.2790292198, 0,           !- X,Y,Z Vertex 3 {m}
  36.62468442, 8.2790292198, 3.3528;      !- X,Y,Z Vertex 4 {m}

BuildingSurface:Detailed,
  P_CorridorFlr1_23_0_0,                  !- Name
  Wall,                                   !- Surface Type
  BTAP-Int-Wall,                          !- Construction Name
  CorridorFlr1 ZN,                        !- Zone Name
  Surface,                                !- Outside Boundary Condition
  P_MechanicalRoomFlr1_10023_0_10021,     !- Outside Boundary Condition Object
  NoSun,                                  !- Sun Exposure
  NoWind,                                 !- Wind Exposure
  ,                                       !- View Factor to Ground
  ,                                       !- Number of Vertices
  36.62468442, 8.2790292198, 3.3528,      !- X,Y,Z Vertex 1 {m}
  36.62468442, 8.2790292198, 0,           !- X,Y,Z Vertex 2 {m}
  40.58708442, 8.2790292198, 0,           !- X,Y,Z Vertex 3 {m}
  40.58708442, 8.2790292198, 3.3528;      !- X,Y,Z Vertex 4 {m}

BuildingSurface:Detailed,
  P_CorridorFlr1_24_0_0,                  !- Name
  Wall,                                   !- Surface Type
  BTAP-Int-Wall,                          !- Construction Name
  CorridorFlr1 ZN,                        !- Zone Name
  Surface,                                !- Outside Boundary Condition
  P_GuestRoom101_10024_0_10022,           !- Outside Boundary Condition Object
  NoSun,                                  !- Sun Exposure
  NoWind,                                 !- Wind Exposure
  ,                                       !- View Factor to Ground
  ,                                       !- Number of Vertices
  40.58708442, 8.2790292198, 3.3528,      !- X,Y,Z Vertex 1 {m}
  40.58708442, 8.2790292198, 0,           !- X,Y,Z Vertex 2 {m}
  44.54948442, 8.2790292198, 0,           !- X,Y,Z Vertex 3 {m}
  44.54948442, 8.2790292198, 3.3528;      !- X,Y,Z Vertex 4 {m}

BuildingSurface:Detailed,
  P_CorridorFlr1_25_0_0,                  !- Name
  Wall,                                   !- Surface Type
  BTAP-Int-Wall,                          !- Construction Name
  CorridorFlr1 ZN,                        !- Zone Name
  Surface,                                !- Outside Boundary Condition
  P_GuestRoom102_10025_0_10023,           !- Outside Boundary Condition Object
  NoSun,                                  !- Sun Exposure
  NoWind,                                 !- Wind Exposure
  ,                                       !- View Factor to Ground
  ,                                       !- Number of Vertices
  44.54948442, 8.2790292198, 3.3528,      !- X,Y,Z Vertex 1 {m}
  44.54948442, 8.2790292198, 0,           !- X,Y,Z Vertex 2 {m}
  48.51188442, 8.2790292198, 0,           !- X,Y,Z Vertex 3 {m}
  48.51188442, 8.2790292198, 3.3528;      !- X,Y,Z Vertex 4 {m}

BuildingSurface:Detailed,
  P_CorridorFlr1_26_0_0,                  !- Name
  Wall,                                   !- Surface Type
  BTAP-Int-Wall,                          !- Construction Name
  CorridorFlr1 ZN,                        !- Zone Name
  Surface,                                !- Outside Boundary Condition
  P_GuestRoom103_10026_0_10024,           !- Outside Boundary Condition Object
  NoSun,                                  !- Sun Exposure
  NoWind,                                 !- Wind Exposure
  ,                                       !- View Factor to Ground
  ,                                       !- Number of Vertices
  48.51188442, 8.2790292198, 3.3528,      !- X,Y,Z Vertex 1 {m}
  48.51188442, 8.2790292198, 0,           !- X,Y,Z Vertex 2 {m}
  52.47428442, 8.2790292198, 0,           !- X,Y,Z Vertex 3 {m}
  52.47428442, 8.2790292198, 3.3528;      !- X,Y,Z Vertex 4 {m}

BuildingSurface:Detailed,
  P_CorridorFlr1_27_0_0,                  !- Name
  Wall,                                   !- Surface Type
  BTAP-Int-Wall,                          !- Construction Name
  CorridorFlr1 ZN,                        !- Zone Name
  Surface,                                !- Outside Boundary Condition
  P_RearStorageFlr1_10027_0_10025,        !- Outside Boundary Condition Object
  NoSun,                                  !- Sun Exposure
  NoWind,                                 !- Wind Exposure
  ,                                       !- View Factor to Ground
  ,                                       !- Number of Vertices
  52.47428442, 8.2790292198, 3.3528,      !- X,Y,Z Vertex 1 {m}
  52.47428442, 8.2790292198, 0,           !- X,Y,Z Vertex 2 {m}
  54.91326842, 8.2790292198, 0,           !- X,Y,Z Vertex 3 {m}
  54.91326842, 8.2790292198, 3.3528;      !- X,Y,Z Vertex 4 {m}
